<?xml version="1.0" encoding="UTF-8"?>

<!-- generated on Mon 29 Jul 2019 10:25:28 PM PDT by Eclipse SUMO netedit Version 1.2.0
<configuration xmlns:xsi="http://www.w3.org/2001/XMLSchema-instance" xsi:noNamespaceSchemaLocation="http://sumo.dlr.de/xsd/netconvertConfiguration.xsd">

    <output>
        <output-file value="/home/majin/majin/线程&amp;&amp;队列-多线程数据共享问题/traci_tls/data/cross.net.xml"/>
    </output>

    <processing>
        <offset.disable-normalization value="true"/>
    </processing>

    <junctions>
        <no-turnarounds value="true"/>
    </junctions>

</configuration>
-->

<net version="1.1" junctionCornerDetail="5" limitTurnSpeed="5.50" xmlns:xsi="http://www.w3.org/2001/XMLSchema-instance" xsi:noNamespaceSchemaLocation="http://sumo.dlr.de/xsd/net_file.xsd">

    <location netOffset="0.00,0.00" convBoundary="0.00,0.00,10000.00,0.00" origBoundary="10000000000.00,10000000000.00,-10000000000.00,-10000000000.00" projParameter="!"/>

    <edge id="1to2" from="1" to="2" priority="-1">
        <lane id="1to2_0" index="0" speed="13.89" length="10000.00" width="3.60" shape="0.00,-9.00 10000.00,-9.00"/>
        <lane id="1to2_1" index="1" speed="13.89" length="10000.00" width="3.60" shape="0.00,-5.40 10000.00,-5.40"/>
        <lane id="1to2_2" index="2" speed="13.89" length="10000.00" width="3.60" shape="0.00,-1.80 10000.00,-1.80"/>
    </edge>
    <edge id="2to1" from="2" to="1" priority="-1">
        <lane id="2to1_0" index="0" speed="13.89" length="10000.00" width="3.60" shape="10000.00,9.00 0.00,9.00"/>
        <lane id="2to1_1" index="1" speed="13.89" length="10000.00" width="3.60" shape="10000.00,5.40 0.00,5.40"/>
        <lane id="2to1_2" index="2" speed="13.89" length="10000.00" width="3.60" shape="10000.00,1.80 0.00,1.80"/>
    </edge>

    <junction id="1" type="dead_end" x="0.00" y="0.00" incLanes="2to1_0 2to1_1 2to1_2" intLanes="" shape="0.00,0.00 0.00,10.80 0.00,0.00"/>
    <junction id="2" type="dead_end" x="10000.00" y="0.00" incLanes="1to2_0 1to2_1 1to2_2" intLanes="" shape="10000.00,0.00 10000.00,-10.80 10000.00,0.00"/>

</net>
